resultados/Relatorios/107barra/107barra-report-qlims.txt
April 10, 2024


relatorio do sistema 107barra

solucao do fluxo de potencia via metodo do fluxo de potencia direto (Canizares, 1993)

opcoes de controle ativadas: QLIMs 

opcoes de relatorio ativadas: RBAR 



vv relatorio de convergencia vv

 * * * * SISTEMA CONVERGENTE * * * * 

Ponto de Maximo Carregamento: 0.075628
Iteracoes: 12

vv relatorio de barras vv area 1 vv

|          BARRA           |         TENSAO       |        GERACAO      |         CARGA       |   SHUNT  |
| NUM |     NOME     |  T  |    MOD    |    ANG   |    MW    |   MVAr   |    MW    |   MVAr   |    MVAr  |
----------------------------------------------------------------------------------------------------------
| 12  | LCBARRET-4GR |  1  |   1.000   |  -34.29  | 300.000  | -89.868  |  0.000   |  0.000   |  0.000   |
----------------------------------------------------------------------------------------------------------
| 16  | FURNAS---5GR |  1  |   1.000   |  -39.56  | 800.000  | 127.633  |  0.000   |  0.000   |  0.000   |
----------------------------------------------------------------------------------------------------------
| 18  | ITUMBIAR-6GR |  2  |   1.020   |  -24.00  | 2048.639 |  -8.232  |  0.000   |  0.000   |  0.000   |
----------------------------------------------------------------------------------------------------------
| 20  | MARIMBON-5GR |  1  |   1.010   |  -31.33  | 900.000  | -71.199  |  0.000   |  0.000   |  0.000   |
----------------------------------------------------------------------------------------------------------
| 22  | M.MOR.A--3GR |  1  |   1.000   |  -30.61  | 150.000  |  2.683   |  0.000   |  0.000   |  0.000   |
----------------------------------------------------------------------------------------------------------
| 35  | CORUMBA--2GR |  1  |   1.000   |  -32.39  | 200.000  |  7.006   |  0.000   |  0.000   |  0.000   |
----------------------------------------------------------------------------------------------------------
| 48  | IBIUNA---4CS |  1  |   1.000   |  -63.18  |  0.000   | -176.565 |  0.000   |  0.000   |  0.000   |
----------------------------------------------------------------------------------------------------------
| 86  | IBIUNA---345 |  0  |   1.013   |  -63.18  |  -0.000  |  -0.000  |  70.991  |  1.291   |  0.000   |
----------------------------------------------------------------------------------------------------------
| 100 | MARIMBON-500 |  0  |   1.025   |  -37.63  |  -0.000  |  -0.000  |  0.000   |  0.000   |  0.000   |
----------------------------------------------------------------------------------------------------------

|          BARRA           |         TENSAO       |        GERACAO      |         CARGA       |   SHUNT  |
| NUM |     NOME     |  T  |    MOD    |    ANG   |    MW    |   MVAr   |    MW    |   MVAr   |    MVAr  |
----------------------------------------------------------------------------------------------------------
| 101 | ARARAQUA-500 |  0  |   1.002   |  -49.50  |  -0.000  |  -0.000  |  0.000   |  0.000   | -200.658 |
----------------------------------------------------------------------------------------------------------
| 102 | POCOS----500 |  0  |   0.975   |  -59.22  |  -0.000  |  -0.000  |  0.000   |  0.000   | -95.109  |
----------------------------------------------------------------------------------------------------------
| 103 | CAMPINAS-500 |  0  |   1.003   |  -61.50  |  -0.000  |  0.000   |  0.000   |  0.000   |  0.000   |
----------------------------------------------------------------------------------------------------------
| 104 | C.PAULIS-500 |  0  |   0.956   |  -71.18  |  0.000   |  -0.000  | 978.821  | 252.772  |  0.000   |
----------------------------------------------------------------------------------------------------------
| 106 | ADRIANO--500 |  0  |   0.939   |  -72.21  |  -0.000  |  0.000   |  0.000   |  0.000   | -88.141  |
----------------------------------------------------------------------------------------------------------
| 120 | P.CALDAS-345 |  0  |   0.980   |  -57.89  |  -0.000  |  0.000   | 193.613  |  96.806  |  0.000   |
----------------------------------------------------------------------------------------------------------
| 122 | IBIUNA---500 |  0  |   1.033   |  -62.72  |  0.000   |  -0.000  | 215.126  |  40.874  |  0.000   |
----------------------------------------------------------------------------------------------------------
| 123 | CAMPINAS-345 |  0  |   0.963   |  -64.50  |  0.000   |  -0.000  | 484.032  | 188.235  |  0.000   |
----------------------------------------------------------------------------------------------------------
| 126 | GUARULHOS345 |  0  |   1.005   |  -63.25  |  0.000   |  0.000   | 311.932  | 102.185  |  0.000   |
----------------------------------------------------------------------------------------------------------
| 131 | M.MORAES-345 |  0  |   1.006   |  -38.17  |  -0.000  |  0.000   |  0.000   |  0.000   |  0.000   |
----------------------------------------------------------------------------------------------------------

|          BARRA           |         TENSAO       |        GERACAO      |         CARGA       |   SHUNT  |
| NUM |     NOME     |  T  |    MOD    |    ANG   |    MW    |   MVAr   |    MW    |   MVAr   |    MVAr  |
----------------------------------------------------------------------------------------------------------
| 134 | LBARRETO-345 |  0  |   1.012   |  -36.56  |  -0.000  |  -0.000  |  0.000   |  0.000   |  0.000   |
----------------------------------------------------------------------------------------------------------
| 136 | FURNAS---345 |  0  |   0.988   |  -46.70  |  -0.000  |  -0.000  |  58.084  |  24.739  |  0.000   |
----------------------------------------------------------------------------------------------------------
| 138 | ITUTINGA-345 |  0  |   0.945   |  -60.48  |  -0.000  |  0.000   |  77.445  |  36.571  |  0.000   |
----------------------------------------------------------------------------------------------------------
| 140 | ADRIANO--345 |  0  |   0.907   |  -73.55  |  0.000   |  -0.000  | 752.939  | 268.907  |  0.000   |
----------------------------------------------------------------------------------------------------------
| 210 | ITUMBIARA500 |  0  |   1.029   |  -31.47  |  -0.000  |  -0.000  |  0.000   |  0.000   |  0.000   |
----------------------------------------------------------------------------------------------------------
| 213 | MARIMBON-345 |  0  |   1.024   |  -37.68  |  0.000   |  0.000   | 100.033  |  41.949  |  0.000   |
----------------------------------------------------------------------------------------------------------
| 216 | PCOLOMBIA345 |  0  |   1.029   |  -36.43  |  -0.000  |  -0.000  |  57.008  |  26.891  |  0.000   |
----------------------------------------------------------------------------------------------------------
| 217 | ITUMBIARA345 |  0  |   1.016   |  -37.70  |  -0.000  |  0.000   | 391.528  |  62.386  |  0.000   |
----------------------------------------------------------------------------------------------------------
| 218 | BANDEIRA-345 |  0  |   0.981   |  -46.72  |  0.000   |  -0.000  | 645.377  | 215.126  |  0.000   |
----------------------------------------------------------------------------------------------------------
| 219 | B.SUL----345 |  0  |   0.989   |  -45.42  |  -0.000  |  -0.000  |  0.000   |  0.000   |  0.000   |
----------------------------------------------------------------------------------------------------------

|          BARRA           |         TENSAO       |        GERACAO      |         CARGA       |   SHUNT  |
| NUM |     NOME     |  T  |    MOD    |    ANG   |    MW    |   MVAr   |    MW    |   MVAr   |    MVAr  |
----------------------------------------------------------------------------------------------------------
| 220 | CORUMBA--345 |  0  |   1.026   |  -37.54  |  -0.000  |  -0.000  |  0.000   |  0.000   |  0.000   |
----------------------------------------------------------------------------------------------------------
| 225 | ITUMBIARA230 |  0  |   0.949   |  -40.99  |  -0.000  |  -0.000  |  0.000   |  0.000   |  0.000   |
----------------------------------------------------------------------------------------------------------
| 228 | B.SUL----230 |  0  |   0.975   |  -47.40  |  0.000   |  0.000   |  92.504  |  36.571  |  0.000   |
----------------------------------------------------------------------------------------------------------
| 233 | SAMAMBAI-500 |  0  |   1.003   |  -42.26  |  -0.000  |  0.000   |  0.000   |  0.000   |  0.000   |
----------------------------------------------------------------------------------------------------------
| 234 | SAMAMBAI-345 |  0  |   0.988   |  -45.53  |  0.000   |  -0.000  | 1075.628 | 376.470  |  0.000   |
----------------------------------------------------------------------------------------------------------
| 300 | EMBORCAC-3GR |  1  |   1.020   |  -24.45  | 700.000  | -101.776 |  0.000   |  0.000   |  0.000   |
----------------------------------------------------------------------------------------------------------
| 301 | JAGUARA--4GR |  1  |   1.010   |  -27.31  | 300.000  | -88.937  |  0.000   |  0.000   |  0.000   |
----------------------------------------------------------------------------------------------------------
| 302 | N.PONTE--3GR |  1  |   1.020   |  -24.87  | 400.000  | -82.836  |  0.000   |  0.000   |  0.000   |
----------------------------------------------------------------------------------------------------------
| 303 | S.SIMAO--4GR |  1  |   1.020   |  -30.83  | 200.000  | -204.061 |  0.000   |  0.000   |  0.000   |
----------------------------------------------------------------------------------------------------------

|          BARRA           |         TENSAO       |        GERACAO      |         CARGA       |   SHUNT  |
| NUM |     NOME     |  T  |    MOD    |    ANG   |    MW    |   MVAr   |    MW    |   MVAr   |    MVAr  |
----------------------------------------------------------------------------------------------------------
| 305 | V.GRANDE-4GR |  1  |   1.000   |  -31.16  | 300.000  |  -3.119  |  0.000   |  0.000   |  0.000   |
----------------------------------------------------------------------------------------------------------
| 320 | EMBORCAC-500 |  0  |   1.038   |  -29.60  |  -0.000  |  0.000   |  0.000   |  0.000   |  0.000   |
----------------------------------------------------------------------------------------------------------
| 325 | JAGUARA--500 |  0  |   1.036   |  -31.64  |  -0.000  |  -0.000  |  0.000   |  0.000   |  0.000   |
----------------------------------------------------------------------------------------------------------
| 326 | JAGUARA--345 |  0  |   1.020   |  -35.19  |  0.000   |  0.000   | 294.722  | 111.865  |  0.000   |
----------------------------------------------------------------------------------------------------------
| 360 | NPONTE---500 |  0  |   1.039   |  -29.06  |  0.000   |  0.000   |  0.000   |  0.000   |  0.000   |
----------------------------------------------------------------------------------------------------------
| 370 | SSIMAO---500 |  0  |   1.041   |  -31.97  |  0.000   |  0.000   |  0.000   |  0.000   |  0.000   |
----------------------------------------------------------------------------------------------------------
| 396 | VGRANDE--345 |  0  |   1.028   |  -34.94  |  -0.000  |  0.000   |  0.000   |  0.000   |  0.000   |
----------------------------------------------------------------------------------------------------------
| 500 | A.VERMEL-4GR |  1  |   1.020   |  -29.26  | 800.000  | -14.214  |  0.000   |  0.000   |  0.000   |
----------------------------------------------------------------------------------------------------------
| 535 | AVERMELHA500 |  0  |   1.025   |  -33.76  |  -0.000  |  -0.000  |  0.000   |  0.000   |  0.000   |
----------------------------------------------------------------------------------------------------------
| 536 | AVERMELH-440 |  0  |   1.011   |  -36.83  |  0.000   |  -0.000  | 752.939  | 161.344  |  0.000   |
----------------------------------------------------------------------------------------------------------
| 1503 | ITAJUBA--500 |  0  |   0.958   |  -68.11  |  -0.000  |  -0.000  |  0.000   |  0.000   |  0.000   |
----------------------------------------------------------------------------------------------------------
| 1504 | ITAJUBA--138 |  0  |   0.917   |  -73.40  |  0.000   |  -0.000  | 155.966  |  67.765  |  0.000   |
----------------------------------------------------------------------------------------------------------



vv relatorio de barras vv area 3 vv

|          BARRA           |         TENSAO       |        GERACAO      |         CARGA       |   SHUNT  |
| NUM |     NOME     |  T  |    MOD    |    ANG   |    MW    |   MVAr   |    MW    |   MVAr   |    MVAr  |
----------------------------------------------------------------------------------------------------------
| 21  | MANSO----3GR |  1  |   1.000   |  -99.03  | 140.000  |  11.964  |  0.000   |  0.000   |  0.000   |
----------------------------------------------------------------------------------------------------------
| 231 | R.VERDE-230  |  0  |   0.843   |  -64.34  |  -0.000  |  -0.000  |  96.484  |  34.313  |  0.000   |
----------------------------------------------------------------------------------------------------------
| 4501 | B.PEIXE--230 |  0  |   0.854   |  -86.37  |  0.000   |  -0.000  |  33.775  |  7.637   | -32.785  |
----------------------------------------------------------------------------------------------------------
| 4521 | ITIQUIRA-230 |  0  |   0.950   |  -98.76  |  -0.000  |  -0.000  |  0.000   |  0.000   |  0.000   |
----------------------------------------------------------------------------------------------------------
| 4522 | RONDONOP-230 |  0  |   0.919   | -100.96  |  0.000   |  0.000   |  0.000   |  0.000   | -16.890  |
----------------------------------------------------------------------------------------------------------

|          BARRA           |         TENSAO       |        GERACAO      |         CARGA       |   SHUNT  |
| NUM |     NOME     |  T  |    MOD    |    ANG   |    MW    |   MVAr   |    MW    |   MVAr   |    MVAr  |
----------------------------------------------------------------------------------------------------------
| 4523 | ITIQUIR--2GR |  1  |   1.006   |  -92.54  |  50.000  |  30.000  |  0.000   |  0.000   |  0.000   |
----------------------------------------------------------------------------------------------------------
| 4532 |  COXIPO-230  |  0  |   0.996   | -109.41  |  0.000   |  0.000   |  0.000   |  0.000   |  0.000   |
----------------------------------------------------------------------------------------------------------
| 4533 |  COXIPO-138  |  0  |   0.985   | -110.07  |  0.000   |  -0.000  |  81.102  |  17.318  |  0.000   |
----------------------------------------------------------------------------------------------------------
| 4542 |  NOBRES-230  |  0  |   0.983   | -109.22  |  -0.000  |  -0.000  |  0.000   |  0.000   |  0.000   |
----------------------------------------------------------------------------------------------------------
| 4552 | N.MUTUM-230  |  0  |   0.934   | -118.24  |  -0.000  |  -0.000  |  13.553  |  1.291   | -17.453  |
----------------------------------------------------------------------------------------------------------
| 4562 | SORRISO-230  |  0  |   0.911   | -128.67  |  0.000   |  -0.000  |  25.600  |  7.960   |  0.000   |
----------------------------------------------------------------------------------------------------------
| 4572 | LUCAS-RV230  |  0  |   0.917   | -124.90  |  -0.000  |  0.000   |  19.361  |  6.884   |  0.000   |
----------------------------------------------------------------------------------------------------------
| 4582 |  SINOP-230   |  0  |   0.910   | -132.37  |  0.000   |  0.000   |  70.454  |  17.963  |  24.842  |
----------------------------------------------------------------------------------------------------------
| 4592 |  MANSO-230   |  0  |   0.996   | -104.19  |  -0.000  |  -0.000  |  0.000   |  0.000   |  0.000   |
----------------------------------------------------------------------------------------------------------

|          BARRA           |         TENSAO       |        GERACAO      |         CARGA       |   SHUNT  |
| NUM |     NOME     |  T  |    MOD    |    ANG   |    MW    |   MVAr   |    MW    |   MVAr   |    MVAr  |
----------------------------------------------------------------------------------------------------------
| 4596 | CBA--GAS-2GR |  1  |   1.000   | -105.03  | 230.000  |  51.294  |  0.000   |  0.000   |  0.000   |
----------------------------------------------------------------------------------------------------------
| 4623 | RONDONOP-138 |  0  |   0.908   | -105.02  |  0.000   |  0.000   | 137.895  |  43.843  |  0.000   |
----------------------------------------------------------------------------------------------------------
| 4703 |  CUIABA-138  |  0  |   0.971   | -111.34  |  0.000   |  -0.000  | 195.872  |  32.000  |  0.000   |
----------------------------------------------------------------------------------------------------------
| 4804 | GUAPORE--2GR |  1  |   1.000   | -112.69  |  50.000  |  1.006   |  0.000   |  0.000   |  0.000   |
----------------------------------------------------------------------------------------------------------
| 4805 | GUAPORE--138 |  0  |   1.001   | -116.51  |  0.000   |  -0.000  |  0.000   |  0.000   |  0.000   |
----------------------------------------------------------------------------------------------------------
| 4807 |  JAURU-138   |  0  |   0.993   | -117.69  |  0.000   |  0.000   | 138.648  |  39.045  |  0.000   |
----------------------------------------------------------------------------------------------------------
| 4862 |  JAURU-230   |  0  |   1.010   | -115.63  |  0.000   |  0.000   |  0.000   |  0.000   | -30.586  |
----------------------------------------------------------------------------------------------------------



vv relatorio de barras vv area 2 vv

|          BARRA           |         TENSAO       |        GERACAO      |         CARGA       |   SHUNT  |
| NUM |     NOME     |  T  |    MOD    |    ANG   |    MW    |   MVAr   |    MW    |   MVAr   |    MVAr  |
----------------------------------------------------------------------------------------------------------

|          BARRA           |         TENSAO       |        GERACAO      |         CARGA       |   SHUNT  |
| NUM |     NOME     |  T  |    MOD    |    ANG   |    MW    |   MVAr   |    MW    |   MVAr   |    MVAr  |
----------------------------------------------------------------------------------------------------------
| 800 | GBMUNHOZ-2GR |  1  |   1.020   |  -33.43  | 1100.000 | 201.014  |  0.000   |  0.000   |  0.000   |
----------------------------------------------------------------------------------------------------------
| 808 | SCAXIAS--4GR |  1  |   1.020   |  -23.52  | 1150.000 | 149.340  |  0.000   |  0.000   |  0.000   |
----------------------------------------------------------------------------------------------------------
| 810 | SSEGREDO-4GR |  1  |   1.020   |  -30.60  | 1200.000 | -13.167  |  0.000   |  0.000   |  0.000   |
----------------------------------------------------------------------------------------------------------
| 814 | BATEIAS--230 |  0  |   0.970   |  -63.23  |  0.000   |  -0.000  | 791.017  | 205.445  |  0.000   |
----------------------------------------------------------------------------------------------------------
| 824 | GBMUNHOZ-500 |  0  |   1.027   |  -43.83  |  -0.000  |  -0.000  |  0.000   |  0.000   |  0.000   |
----------------------------------------------------------------------------------------------------------
| 834 | S.MATEUS-230 |  0  |   0.970   |  -55.30  |  -0.000  |  -0.000  |  14.413  |  4.518   |  0.000   |
----------------------------------------------------------------------------------------------------------
| 839 | CASCAVEL-230 |  0  |   0.993   |  -33.85  |  -0.000  |  0.000   |  0.000   |  0.000   |  0.000   |
----------------------------------------------------------------------------------------------------------
| 840 | CASCAVEL-138 |  0  |   0.979   |  -37.11  |  0.000   |  0.000   | 171.025  |  38.723  |  0.000   |
----------------------------------------------------------------------------------------------------------
| 848 | FCHOPIM--138 |  0  |   0.994   |  -33.08  |  0.000   |  0.000   | 101.109  |  19.361  |  0.000   |
----------------------------------------------------------------------------------------------------------
| 856 | SEGREDO--500 |  0  |   1.029   |  -37.49  |  0.000   |  0.000   |  0.000   |  0.000   |  0.000   |
----------------------------------------------------------------------------------------------------------

|          BARRA           |         TENSAO       |        GERACAO      |         CARGA       |   SHUNT  |
| NUM |     NOME     |  T  |    MOD    |    ANG   |    MW    |   MVAr   |    MW    |   MVAr   |    MVAr  |
----------------------------------------------------------------------------------------------------------
| 895 | BATEIAS--500 |  0  |   1.019   |  -60.69  |  -0.000  |  0.000   |  0.000   |  0.000   |  0.000   |
----------------------------------------------------------------------------------------------------------
| 896 | CASCAVELO500 |  0  |   1.023   |  -31.46  |  0.000   |  0.000   |  0.000   |  0.000   |  0.000   |
----------------------------------------------------------------------------------------------------------
| 897 | SCAXIAS--500 |  0  |   1.036   |  -30.05  |  -0.000  |  -0.000  |  0.000   |  0.000   |  0.000   |
----------------------------------------------------------------------------------------------------------
| 898 | FCHOPIM--230 |  0  |   1.008   |  -29.40  |  -0.000  |  -0.000  |  0.000   |  0.000   |  0.000   |
----------------------------------------------------------------------------------------------------------
| 904 | ITA------4GR |  1  |   1.020   |  -42.61  | 700.000  | -105.720 |  0.000   |  0.000   |  0.000   |
----------------------------------------------------------------------------------------------------------
| 915 | MACHADIN-2GR |  1  |   1.020   |  -40.27  | 700.000  | -35.210  |  0.000   |  0.000   |  0.000   |
----------------------------------------------------------------------------------------------------------
| 919 | SOSOR1A4-4GR |  1  |   1.000   |  -21.43  | 700.000  | 107.271  |  0.000   |  0.000   |  0.000   |
----------------------------------------------------------------------------------------------------------
| 925 | SSANTIAG-3GR |  1  |   1.020   |  -26.94  | 950.000  | 110.701  |  0.000   |  0.000   |  0.000   |
----------------------------------------------------------------------------------------------------------
| 933 | AREIA----500 |  0  |   1.027   |  -44.21  |  -0.000  |  0.000   |  0.000   |  0.000   |  0.000   |
----------------------------------------------------------------------------------------------------------
| 934 | AREIA----230 |  0  |   0.988   |  -44.56  |  0.000   |  0.000   | 254.924  |  63.462  |  0.000   |
----------------------------------------------------------------------------------------------------------

|          BARRA           |         TENSAO       |        GERACAO      |         CARGA       |   SHUNT  |
| NUM |     NOME     |  T  |    MOD    |    ANG   |    MW    |   MVAr   |    MW    |   MVAr   |    MVAr  |
----------------------------------------------------------------------------------------------------------
| 938 | BLUMENAU-500 |  0  |   1.014   |  -64.57  |  -0.000  |  -0.000  |  0.000   |  0.000   |  0.000   |
----------------------------------------------------------------------------------------------------------
| 939 | BLUMENAU-230 |  0  |   0.968   |  -67.29  |  0.000   |  0.000   | 1235.896 |  57.073  |  0.000   |
----------------------------------------------------------------------------------------------------------
| 955 | CNOVOS---500 |  0  |   1.038   |  -51.05  |  -0.000  |  -0.000  |  0.000   |  0.000   |  0.000   |
----------------------------------------------------------------------------------------------------------
| 959 | CURITIBA-500 |  0  |   1.006   |  -61.04  |  -0.000  |  -0.000  |  0.000   |  0.000   | 101.296  |
----------------------------------------------------------------------------------------------------------
| 960 | CURITIBA-230 |  0  |   0.966   |  -64.01  |  0.000   |  -0.000  | 908.583  | 504.577  |  0.000   |
----------------------------------------------------------------------------------------------------------
| 964 | CAXIAS---500 |  0  |   1.005   |  -59.71  |  -0.000  |  -0.000  |  0.000   |  0.000   |  0.000   |
----------------------------------------------------------------------------------------------------------
| 965 | CAXIAS---230 |  0  |   0.971   |  -62.54  |  0.000   |  0.000   | 812.744  |  60.493  |  0.000   |
----------------------------------------------------------------------------------------------------------
| 976 | GRAVATAI-500 |  0  |   0.975   |  -62.86  |  -0.000  |  0.000   |  0.000   |  0.000   |  0.000   |
----------------------------------------------------------------------------------------------------------
| 995 | ITA------500 |  0  |   1.035   |  -47.00  |  -0.000  |  -0.000  |  0.000   |  0.000   |  0.000   |
----------------------------------------------------------------------------------------------------------
| 1015 | JOINVILLE230 |  0  |   0.969   |  -66.93  |  0.000   |  0.000   |  75.294  |  2.151   |  0.000   |
----------------------------------------------------------------------------------------------------------

|          BARRA           |         TENSAO       |        GERACAO      |         CARGA       |   SHUNT  |
| NUM |     NOME     |  T  |    MOD    |    ANG   |    MW    |   MVAr   |    MW    |   MVAr   |    MVAr  |
----------------------------------------------------------------------------------------------------------
| 1030 | MACHADIN-500 |  0  |   1.037   |  -48.13  |  -0.000  |  0.000   |  0.000   |  0.000   |  0.000   |
----------------------------------------------------------------------------------------------------------
| 1047 | SOSORIO--230 |  0  |   1.014   |  -28.35  |  -0.000  |  -0.000  |  0.000   |  0.000   |  0.000   |
----------------------------------------------------------------------------------------------------------
| 1060 | SSANTIAG-500 |  0  |   1.038   |  -34.94  |  0.000   |  0.000   |  0.000   |  0.000   |  0.000   |
----------------------------------------------------------------------------------------------------------
| 1210 | GRAVATAI-230 |  0  |   0.962   |  -66.06  |  0.000   |  0.000   | 1320.871 | 457.142  |  0.000   |
----------------------------------------------------------------------------------------------------------
| 2458 | CASCAVEL-230 |  0  |   0.994   |  -34.07  |  0.000   |  -0.000  | 433.478  | 135.529  |  0.000   |
----------------------------------------------------------------------------------------------------------



vv relatorio de barras vv area 0 vv

|          BARRA           |         TENSAO       |        GERACAO      |         CARGA       |   SHUNT  |
| NUM |     NOME     |  T  |    MOD    |    ANG   |    MW    |   MVAr   |    MW    |   MVAr   |    MVAr  |
----------------------------------------------------------------------------------------------------------
| 4530 | COXIPO-CE-12 |  1  |   1.020   | -109.41  |  -0.000  |  17.364  |  0.000   |  0.000   |  0.000   |
----------------------------------------------------------------------------------------------------------



fim do relatorio do sistema 107barra